data_genice
#
#Command line: /usr/workspace/sun36/anaconda/envs/opence-1.8.0/bin/genice2 --rep 1 1 1 1c --format cif
_cell_length_a                6.381821280722142
_cell_length_b                6.381821280722142
_cell_length_c                6.381821280722142
_cell_angle_alpha             90.0
_cell_angle_beta              90.0
_cell_angle_gamma             90.0

_symmetry_cell_setting        'orthorhombic'
_symmetry_space_group_name_H-M   'P 1 '

loop_
  _symmetry_equiv_pos_as_xyz
X,Y,Z

loop_
_atom_site_label
_atom_site_type_symbol
_atom_site_fract_x
_atom_site_fract_y
_atom_site_fract_z
    O0     O    0.0000    0.0102    0.0000
    H1     H   -0.0839   -0.0816    0.0839
    H2     H    0.0839   -0.0816   -0.0839
    O3     O    0.5000    0.5102    0.0000
    H4     H    0.4161    0.4184    0.0839
    H5     H    0.5839    0.4184   -0.0839
    O6     O    0.5000   -0.0102    0.5000
    H7     H    0.5839    0.0816    0.5839
    H8     H    0.4161    0.0816    0.4161
    O9     O    0.0000    0.4898    0.5000
   H10     H    0.0839    0.5816    0.5839
   H11     H   -0.0839    0.5816    0.4161
   O12     O    0.2602    0.2500    0.2500
   H13     H    0.1684    0.3339    0.3339
   H14     H    0.1684    0.1661    0.1661
   O15     O    0.7602    0.7500    0.2500
   H16     H    0.6684    0.6661    0.1661
   H17     H    0.6684    0.8339    0.3339
   O18     O    0.7398    0.2500    0.7500
   H19     H    0.8316    0.3339    0.6661
   H20     H    0.8316    0.1661    0.8339
   O21     O    0.2398    0.7500    0.7500
   H22     H    0.3316    0.8339    0.6661
   H23     H    0.3316    0.6661    0.8339

