data_genice
#
#Command line: /usr/workspace/sun36/anaconda/envs/opence-1.8.0/bin/genice2 --rep 1 1 1 1h --format cif
_cell_length_a                7.822838765564372
_cell_length_b                7.353572647182051
_cell_length_c                9.036518515423753
_cell_angle_alpha             90.0
_cell_angle_beta              90.0
_cell_angle_gamma             90.0

_symmetry_cell_setting        'orthorhombic'
_symmetry_space_group_name_H-M   'P 1 '

loop_
  _symmetry_equiv_pos_as_xyz
X,Y,Z

loop_
_atom_site_label
_atom_site_type_symbol
_atom_site_fract_x
_atom_site_fract_y
_atom_site_fract_z
    O0     O    0.1625    0.2494    0.3728
    H1     H    0.2232    0.2024    0.2892
    H2     H    0.2232    0.2033    0.4567
    O3     O    0.6745    0.6081    0.1172
    H4     H    0.7281    0.6539    0.2049
    H5     H    0.5605    0.6552    0.1211
    O6     O    0.8419    0.7326    0.3661
    H7     H    0.8380    0.8626    0.3698
    H8     H    0.7832    0.6942    0.4537
    O9     O    0.6745    0.6105    0.6158
   H10     H    0.5605    0.6576    0.6197
   H11     H    0.7281    0.6564    0.7034
   O12     O    0.3274    0.1240    0.6226
   H13     H    0.3331   -0.0061    0.6219
   H14     H    0.4443    0.1624    0.6224
   O15     O    0.3467    0.7489    0.6205
   H16     H    0.2851    0.7040    0.7044
   H17     H    0.2851    0.7032    0.5368
   O18     O    0.6644    0.2329    0.1286
   H19     H    0.6677    0.3630    0.1249
   H20     H    0.7222    0.1948    0.0406
   O21     O    0.6644    0.2354    0.6272
   H22     H    0.7225    0.1964    0.5396
   H23     H    0.6681    0.3654    0.6229
   O24     O    0.1793    0.6270    0.8701
   H25     H    0.1746    0.4970    0.8705
   H26     H    0.0621    0.6645    0.8699
   O27     O    0.1793    0.6246    0.3716
   H28     H    0.0621    0.6621    0.3715
   H29     H    0.1746    0.4945    0.3720
   O30     O    0.3467    0.7464    0.1219
   H31     H    0.2846    0.7012    0.2055
   H32     H    0.2848    0.7022    0.0379
   O33     O    0.3274    0.1214    0.1240
   H34     H    0.3331   -0.0086    0.1233
   H35     H    0.4443    0.1598    0.1239
   O36     O    0.8296    0.1075    0.3783
   H37     H    0.9435    0.1547    0.3747
   H38     H    0.7762    0.1533    0.2906
   O39     O    0.8296    0.1099    0.8768
   H40     H    0.7761    0.1557    0.7891
   H41     H    0.9435    0.1571    0.8732
   O42     O    0.8420    0.7352    0.8646
   H43     H    0.8378    0.8652    0.8687
   H44     H    0.7839    0.6962    0.9522
   O45     O    0.1625    0.2519    0.8713
   H46     H    0.2225    0.2046    0.9552
   H47     H    0.2232    0.2049    0.7877

