data_genice
#
#Command line: /usr/workspace/sun36/anaconda/envs/opence-1.8.0/bin/genice2 --rep 1 1 1 2 --format cif
_cell_length_a                7.779999999999999
_cell_length_b                7.779999999999999
_cell_length_c                7.779999999999998
_cell_angle_alpha             113.1
_cell_angle_beta              113.1
_cell_angle_gamma             113.1

_symmetry_cell_setting        'triclinic'
_symmetry_space_group_name_H-M   'P 1 '

loop_
  _symmetry_equiv_pos_as_xyz
X,Y,Z

loop_
_atom_site_label
_atom_site_type_symbol
_atom_site_fract_x
_atom_site_fract_y
_atom_site_fract_z
    O0     O    0.2718    0.0262    0.8528
    H1     H    0.4199    0.1911    0.9917
    H2     H    0.1493    0.0405    0.7913
    O3     O    0.4797    0.7568    0.3378
    H4     H    0.4048    0.7265    0.4065
    H5     H    0.3717    0.7480    0.2129
    O6     O    0.8528    0.2718    0.0262
    H7     H    0.7913    0.1493    0.0405
    H8     H    0.9917    0.4199    0.1911
    O9     O    0.3378    0.4797    0.7568
   H10     H    0.2129    0.3717    0.7480
   H11     H    0.4065    0.4048    0.7265
   O12     O    0.0262    0.8528    0.2718
   H13     H    0.1911    0.9917    0.4199
   H14     H    0.0405    0.7913    0.1493
   O15     O    0.7568    0.3378    0.4797
   H16     H    0.7265    0.4065    0.4048
   H17     H    0.7480    0.2129    0.3717
   O18     O    0.7282    0.9738    0.1472
   H19     H    0.8507    0.9595    0.2087
   H20     H    0.5801    0.8089    0.0083
   O21     O    0.5203    0.2432    0.6622
   H22     H    0.5952    0.2735    0.5935
   H23     H    0.6283    0.2520    0.7871
   O24     O    0.1472    0.7282    0.9738
   H25     H    0.0083    0.5801    0.8089
   H26     H    0.2087    0.8507    0.9595
   O27     O    0.6622    0.5203    0.2432
   H28     H    0.7871    0.6283    0.2520
   H29     H    0.5935    0.5952    0.2735
   O30     O    0.9738    0.1472    0.7282
   H31     H    0.9595    0.2087    0.8507
   H32     H    0.8089    0.0083    0.5801
   O33     O    0.2432    0.6622    0.5203
   H34     H    0.2735    0.5935    0.5952
   H35     H    0.2520    0.7871    0.6283

