data_genice
#
#Command line: /usr/workspace/sun36/anaconda/envs/opence-1.8.0/bin/genice2 --rep 1 1 1 3 --format cif
_cell_length_a                6.663684599043878
_cell_length_b                6.663684599043878
_cell_length_c                6.933590815926843
_cell_angle_alpha             90.0
_cell_angle_beta              90.0
_cell_angle_gamma             90.0

_symmetry_cell_setting        'orthorhombic'
_symmetry_space_group_name_H-M   'P 1 '

loop_
  _symmetry_equiv_pos_as_xyz
X,Y,Z

loop_
_atom_site_label
_atom_site_type_symbol
_atom_site_fract_x
_atom_site_fract_y
_atom_site_fract_z
    O0     O    0.3960    0.3903    0.0225
    H1     H    0.3875    0.5281   -0.0156
    H2     H    0.3610    0.3166   -0.0911
    O3     O    0.6071    0.1949    0.4775
    H4     H    0.6491    0.1263    0.3631
    H5     H    0.6226    0.3342    0.4475
    O6     O    0.8946    0.6959    0.7908
    H7     H    0.8504    0.6255    0.9034
    H8     H    0.8773    0.8347    0.8222
    O9     O    0.2071    0.6156    0.5452
   H10     H    0.1660    0.5082    0.4625
   H11     H    0.0945    0.6379    0.6281
   O12     O    0.6933    0.8971    0.2101
   H13     H    0.6552    0.8020    0.3069
   H14     H    0.8365    0.9030    0.2181
   O15     O    0.6110    0.6056    0.4989
   H16     H    0.4732    0.6140    0.5370
   H17     H    0.6847    0.6406    0.6125
   O18     O    0.0999    0.9018    0.2535
   H19     H    0.1969    0.8727    0.1555
   H20     H    0.1281    0.8073    0.3539
   O21     O    0.3058    0.1067    0.7312
   H22     H    0.3745    0.1488    0.6169
   H23     H    0.1665    0.1223    0.7010
   O24     O    0.3859    0.7947    0.9770
   H25     H    0.3630    0.9067    0.8933
   H26     H    0.4956    0.8356    1.0569
   O27     O    0.9010    0.1000    0.7610
   H28     H    0.8719    0.1970    0.8590
   H29     H    0.8065    0.1283    0.6606
   O30     O    0.1047    0.3080    0.2972
   H31     H    0.2021    0.3464    0.2027
   H32     H    0.0990    0.1648    0.2887
   O33     O    0.8062    0.3942    0.0298
   H34     H    0.8769    0.3534    0.1434
   H35     H    0.6674    0.3800    0.0627

