data_genice
#
#Command line: /usr/workspace/sun36/anaconda/envs/opence-1.8.0/bin/genice2 --rep 1 1 1 7 --format cif
_cell_length_a                6.686167486021091
_cell_length_b                6.686167486021091
_cell_length_c                6.686167486021091
_cell_angle_alpha             90.0
_cell_angle_beta              90.0
_cell_angle_gamma             90.0

_symmetry_cell_setting        'orthorhombic'
_symmetry_space_group_name_H-M   'P 1 '

loop_
  _symmetry_equiv_pos_as_xyz
X,Y,Z

loop_
_atom_site_label
_atom_site_type_symbol
_atom_site_fract_x
_atom_site_fract_y
_atom_site_fract_z
    O0     O   -0.0097    0.0000    0.0000
    H1     H    0.0779   -0.0801   -0.0801
    H2     H    0.0779    0.0801    0.0801
    O3     O    0.5097    0.5000    0.0000
    H4     H    0.4221    0.4199    0.0801
    H5     H    0.4221    0.5801   -0.0801
    O6     O    0.4903    0.0000    0.5000
    H7     H    0.5779   -0.0801    0.4199
    H8     H    0.5779    0.0801    0.5801
    O9     O    0.0097    0.5000    0.5000
   H10     H   -0.0779    0.5801    0.4199
   H11     H   -0.0779    0.4199    0.5801
   O12     O    0.2500    0.2500    0.2403
   H13     H    0.1699    0.3301    0.3279
   H14     H    0.3301    0.1699    0.3279
   O15     O    0.7500    0.7500    0.2597
   H16     H    0.8301    0.8301    0.1721
   H17     H    0.6699    0.6699    0.1721
   O18     O    0.7500    0.2500    0.7403
   H19     H    0.6699    0.3301    0.8279
   H20     H    0.8301    0.1699    0.8279
   O21     O    0.2500    0.7500    0.7597
   H22     H    0.1699    0.6699    0.6721
   H23     H    0.3301    0.8301    0.6721
   O24     O    0.5000   -0.0097    0.0000
   H25     H    0.5801    0.0779    0.0801
   H26     H    0.4199    0.0779   -0.0801
   O27     O    0.0000    0.5097    0.0000
   H28     H    0.0801    0.4221   -0.0801
   H29     H   -0.0801    0.4221    0.0801
   O30     O    0.0000    0.0097    0.5000
   H31     H   -0.0801   -0.0779    0.5801
   H32     H    0.0801   -0.0779    0.4199
   O33     O    0.5000    0.4903    0.5000
   H34     H    0.5801    0.5779    0.5801
   H35     H    0.4199    0.5779    0.4199
   O36     O    0.7500    0.2500    0.2403
   H37     H    0.6699    0.3301    0.3279
   H38     H    0.8301    0.1699    0.3279
   O39     O    0.2500    0.7500    0.2597
   H40     H    0.3301    0.8301    0.1721
   H41     H    0.1699    0.6699    0.1721
   O42     O    0.2500    0.2500    0.7597
   H43     H    0.3301    0.3301    0.6721
   H44     H    0.1699    0.1699    0.6721
   O45     O    0.7500    0.7500    0.7403
   H46     H    0.6699    0.8301    0.8279
   H47     H    0.8301    0.6699    0.8279

