data_genice
#
#Command line: /usr/workspace/sun36/anaconda/envs/opence-1.8.0/bin/genice2 --rep 1 1 1 sI --format cif
_cell_length_a                12.003488636143597
_cell_length_b                12.003488636143597
_cell_length_c                12.003488636143597
_cell_angle_alpha             90.0
_cell_angle_beta              90.0
_cell_angle_gamma             90.0

_symmetry_cell_setting        'orthorhombic'
_symmetry_space_group_name_H-M   'P 1 '

loop_
  _symmetry_equiv_pos_as_xyz
X,Y,Z

loop_
_atom_site_label
_atom_site_type_symbol
_atom_site_fract_x
_atom_site_fract_y
_atom_site_fract_z
    O0     O    0.8876    0.3085   -0.0036
    H1     H    0.8412    0.3733   -0.0025
    H2     H    0.8639    0.2659    0.0595
    O3     O    0.3085   -0.0036    0.1124
    H4     H    0.2659    0.0595    0.1361
    H5     H    0.3733   -0.0025    0.1588
    O6     O    0.0038    0.2500    0.4962
    H7     H    0.0010    0.2055    0.5623
    H8     H   -0.0623    0.2945    0.4990
    O9     O    0.6816    0.3161    0.6778
   H10     H    0.6599    0.3780    0.7230
   H11     H    0.7274    0.2715    0.7255
   O12     O    0.1881    0.1817    0.1841
   H13     H    0.1226    0.1610    0.2246
   H14     H    0.1609    0.2247    0.1227
   O15     O    0.0000    0.7446    0.5000
   H16     H    0.0000    0.7934    0.4369
   H17     H    0.0000    0.7934    0.5631
   O18     O    0.1778    0.8161    0.1816
   H19     H    0.2255    0.7715    0.2274
   H20     H    0.2230    0.8780    0.1599
   O21     O    0.4964    0.8085    0.3876
   H22     H    0.4975    0.8733    0.3412
   H23     H    0.5595    0.7659    0.3639
   O24     O    0.6124    0.4964    0.8085
   H25     H    0.6361    0.5595    0.7659
   H26     H    0.6588    0.4975    0.8733
   O27     O    0.8119    0.1817    0.8159
   H28     H    0.8774    0.1610    0.7754
   H29     H    0.8391    0.2247    0.8773
   O30     O    0.3222    0.3184    0.3161
   H31     H    0.2745    0.2726    0.2715
   H32     H    0.2770    0.3401    0.3780
   O33     O    0.1951    0.3812    0.5000
   H34     H    0.1809    0.4597    0.5000
   H35     H    0.1227    0.3478    0.5000
   O36     O    0.3119    0.6841    0.3183
   H37     H    0.3391    0.6227    0.2753
   H38     H    0.3774    0.7246    0.3390
   O39     O    0.3183    0.3119    0.6841
   H40     H    0.2753    0.3391    0.6227
   H41     H    0.3390    0.3774    0.7246
   O42     O    0.6878    0.0036    0.1195
   H43     H    0.7316   -0.0596    0.1410
   H44     H    0.6887    0.0023    0.0398
   O45     O    0.5036    0.1878    0.3805
   H46     H    0.5023    0.1887    0.4602
   H47     H    0.4404    0.2316    0.3590
   O48     O    0.8184    0.8222    0.1839
   H49     H    0.7726    0.7745    0.2285
   H50     H    0.8401    0.7770    0.1220
   O51     O    0.5036    0.8122    0.6195
   H52     H    0.4404    0.7684    0.6410
   H53     H    0.5023    0.8113    0.5398
   O54     O    0.8145    0.3862    0.5000
   H55     H    0.7713    0.3635    0.5631
   H56     H    0.7713    0.3635    0.4369
   O57     O    0.3049    0.0000    0.8812
   H58     H    0.3773    0.0000    0.8478
   H59     H    0.3191    0.0000    0.9597
   O60     O    0.5000    0.1855    0.6138
   H61     H    0.5631    0.2287    0.6365
   H62     H    0.4369    0.2287    0.6365
   O63     O    0.3183    0.6881    0.6841
   H64     H    0.2753    0.6609    0.6227
   H65     H    0.3390    0.6226    0.7246
   O66     O    0.8805    0.6878    0.0036
   H67     H    0.9602    0.6887    0.0023
   H68     H    0.8590    0.7316   -0.0596
   O69     O    0.8222    0.8161    0.8184
   H70     H    0.7770    0.8780    0.8401
   H71     H    0.7745    0.7715    0.7726
   O72     O    0.0000    0.1188    0.3049
   H73     H    0.0000    0.1522    0.3773
   H74     H    0.0000    0.0403    0.3191
   O75     O    0.8159    0.1881    0.1817
   H76     H    0.8773    0.1609    0.2247
   H77     H    0.7754    0.1226    0.1610
   O78     O    0.8049    0.6188    0.5000
   H79     H    0.8191    0.5403    0.5000
   H80     H    0.8773    0.6522    0.5000
   O81     O    0.7500    0.4962   -0.0038
   H82     H    0.7945    0.5623   -0.0010
   H83     H    0.7055    0.4990    0.0623
   O84     O   -0.0000    0.8862    0.6855
   H85     H   -0.0631    0.8635    0.7287
   H86     H    0.0631    0.8635    0.7287
   O87     O    0.6841    0.6817    0.6881
   H88     H    0.6227    0.7247    0.6609
   H89     H    0.7246    0.6610    0.6226
   O90     O    0.4962   -0.0038    0.2500
   H91     H    0.5623   -0.0010    0.2055
   H92     H    0.4990    0.0623    0.2945
   O93     O   -0.0036    0.1195    0.6878
   H94     H   -0.0023    0.0398    0.6887
   H95     H    0.0596    0.1410    0.7316
   O96     O    0.1915    0.6124    0.5036
   H97     H    0.1267    0.6588    0.5025
   H98     H    0.2341    0.6361    0.4405
   O99     O    0.3876    0.5036    0.1915
  H100     H    0.3412    0.5025    0.1267
  H101     H    0.3639    0.4405    0.2341
  O102     O    0.3812    0.5000    0.8049
  H103     H    0.3478    0.5000    0.8773
  H104     H    0.4597    0.5000    0.8191
  O105     O    0.1778    0.1839    0.8184
  H106     H    0.2230    0.1220    0.8401
  H107     H    0.2255    0.2285    0.7726
  O108     O   -0.0000    0.8862    0.3145
  H109     H    0.0631    0.8635    0.2713
  H110     H   -0.0631    0.8635    0.2713
  O111     O    0.1138    0.6855    0.0000
  H112     H    0.1365    0.7287    0.0631
  H113     H    0.1365    0.7287   -0.0631
  O114     O    0.1195    0.3122    0.0036
  H115     H    0.1410    0.2684   -0.0596
  H116     H    0.0398    0.3113    0.0023
  O117     O    0.6839    0.3222    0.3184
  H118     H    0.7285    0.2745    0.2726
  H119     H    0.6220    0.2770    0.3401
  O120     O    0.6817    0.6881    0.3159
  H121     H    0.6610    0.6226    0.2754
  H122     H    0.7247    0.6609    0.3773
  O123     O    0.6195    0.5036    0.1878
  H124     H    0.5398    0.5023    0.1887
  H125     H    0.6410    0.4404    0.2316
  O126     O    0.1778    0.8161    0.8184
  H127     H    0.2255    0.7715    0.7726
  H128     H    0.2230    0.8780    0.8401
  O129     O    0.5000    0.0000    0.7554
  H130     H    0.5000    0.0631    0.7066
  H131     H    0.5000   -0.0631    0.7066
  O132     O    0.2554    0.5000    0.0000
  H133     H    0.2066    0.4369    0.0000
  H134     H    0.2066    0.5631    0.0000
  O135     O    0.6915   -0.0036    0.8876
  H136     H    0.7341    0.0595    0.8639
  H137     H    0.6267   -0.0025    0.8412

